Pcp_File_Version=4
*** BLOCK I: ATMOSPHERIC INFORMATION  **********************************
MaxAL (MaxAL = number of atmospheric data-records)
24
lDailyVar lSinusVar lLai lBCCycles lInterc 
f f f f f
hCritS (max. allowed pressure head at the soil surface)
1e+30
 tAtm     Prec    rSoil    rRoot    hCritA  rB  hB  ht  tTop  tBot  Ampl  cTop     cBot
    1 0.000000 0.000000 0.000000 1000000.0   0   0   0     0     0     0   0.0 1.041628
    2 0.000000 0.000000 0.000000 1000000.0   0   0   0     0     0     0   0.0 1.041628
    3 0.000000 0.000000 0.000000 1000000.0   0   0   0     0     0     0   0.0 1.041628
    4 0.000000 0.000000 0.000000 1000000.0   0   0   0     0     0     0   0.0 1.041628
    5 0.000000 0.000000 0.000000 1000000.0   0   0   0     0     0     0   0.0 1.041628
    6 0.000000 0.000000 0.000000 1000000.0   0   0   0     0     0     0   0.0 1.041628
    7 0.409468 0.000000 0.000000 1000000.0   0   0   0     0     0     0  40.0 1.041628
    8 0.000000 0.024165 0.015516 1000000.0   0   0   0     0     0     0   0.0 1.041628
    9 0.000000 0.024165 0.015516 1000000.0   0   0   0     0     0     0   0.0 1.041628
   10 0.000000 0.024165 0.015516 1000000.0   0   0   0     0     0     0   0.0 1.041628
   11 0.000000 0.024165 0.015516 1000000.0   0   0   0     0     0     0   0.0 1.041628
   12 0.000000 0.024165 0.015516 1000000.0   0   0   0     0     0     0   0.0 1.041628
   13 0.000000 0.024165 0.015516 1000000.0   0   0   0     0     0     0   0.0 1.041628
   14 0.000000 0.024165 0.015516 1000000.0   0   0   0     0     0     0   0.0 1.041628
   15 0.000000 0.024165 0.015516 1000000.0   0   0   0     0     0     0   0.0 1.041628
   16 0.000000 0.024165 0.015516 1000000.0   0   0   0     0     0     0   0.0 1.041628
   17 0.000000 0.024165 0.015516 1000000.0   0   0   0     0     0     0   0.0 1.041628
   18 0.000000 0.024165 0.015516 1000000.0   0   0   0     0     0     0   0.0 1.041628
   19 0.000000 0.000000 0.000000 1000000.0   0   0   0     0     0     0   0.0 1.041628
   20 0.000000 0.000000 0.000000 1000000.0   0   0   0     0     0     0   0.0 1.041628
   21 0.000000 0.000000 0.000000 1000000.0   0   0   0     0     0     0   0.0 1.041628
   22 0.000000 0.000000 0.000000 1000000.0   0   0   0     0     0     0   0.0 1.041628
   23 0.000000 0.000000 0.000000 1000000.0   0   0   0     0     0     0   0.0 1.041628
   24 0.000000 0.000000 0.000000 1000000.0   0   0   0     0     0     0   0.0 1.041628
end*** END OF INPUT FILE ATMOSPH.IN **********************************
