Pcp_File_Version=4
*** BLOCK I: ATMOSPHERIC INFORMATION  **********************************
MaxAL (MaxAL = number of atmospheric data-records)
24
lDailyVar lSinusVar lLai lBCCycles lInterc 
f f f f f
hCritS (max. allowed pressure head at the soil surface)
1e+30
 tAtm  Prec    rSoil    rRoot    hCritA  rB  hB  ht  tTop  tBot  Ampl      cTop  cBot
    1 0.000 0.000000 0.000000 1000000.0   0   0   0     0     0     0  0.000000   0.3
    2 0.000 0.000000 0.000000 1000000.0   0   0   0     0     0     0  0.000000   0.3
    3 0.000 0.000000 0.000000 1000000.0   0   0   0     0     0     0  0.000000   0.3
    4 0.000 0.000000 0.000000 1000000.0   0   0   0     0     0     0  0.000000   0.3
    5 0.000 0.000000 0.000000 1000000.0   0   0   0     0     0     0  0.000000   0.3
    6 0.000 0.000000 0.000000 1000000.0   0   0   0     0     0     0  0.000000   0.3
    7 0.405 0.000000 0.000000 1000000.0   0   0   0     0     0     0 30.212588   0.3
    8 0.000 0.010842 0.006155 1000000.0   0   0   0     0     0     0  0.000000   0.3
    9 0.000 0.010842 0.006155 1000000.0   0   0   0     0     0     0  0.000000   0.3
   10 0.000 0.010842 0.006155 1000000.0   0   0   0     0     0     0  0.000000   0.3
   11 0.000 0.010842 0.006155 1000000.0   0   0   0     0     0     0  0.000000   0.3
   12 0.000 0.010842 0.006155 1000000.0   0   0   0     0     0     0  0.000000   0.3
   13 0.000 0.010842 0.006155 1000000.0   0   0   0     0     0     0  0.000000   0.3
   14 0.000 0.010842 0.006155 1000000.0   0   0   0     0     0     0  0.000000   0.3
   15 0.000 0.010842 0.006155 1000000.0   0   0   0     0     0     0  0.000000   0.3
   16 0.000 0.010842 0.006155 1000000.0   0   0   0     0     0     0  0.000000   0.3
   17 0.000 0.010842 0.006155 1000000.0   0   0   0     0     0     0  0.000000   0.3
   18 0.000 0.010842 0.006155 1000000.0   0   0   0     0     0     0  0.000000   0.3
   19 0.000 0.000000 0.000000 1000000.0   0   0   0     0     0     0  0.000000   0.3
   20 0.000 0.000000 0.000000 1000000.0   0   0   0     0     0     0  0.000000   0.3
   21 0.000 0.000000 0.000000 1000000.0   0   0   0     0     0     0  0.000000   0.3
   22 0.000 0.000000 0.000000 1000000.0   0   0   0     0     0     0  0.000000   0.3
   23 0.000 0.000000 0.000000 1000000.0   0   0   0     0     0     0  0.000000   0.3
   24 0.000 0.000000 0.000000 1000000.0   0   0   0     0     0     0  0.000000   0.3
end*** END OF INPUT FILE ATMOSPH.IN **********************************
