Pcp_File_Version=4
*** BLOCK I: ATMOSPHERIC INFORMATION  **********************************
MaxAL (MaxAL = number of atmospheric data-records)
24
lDailyVar lSinusVar lLai lBCCycles lInterc 
f f f f f
hCritS (max. allowed pressure head at the soil surface)
1e+30
 tAtm  Prec   rSoil    rRoot    hCritA  rB  hB  ht  tTop  tBot  Ampl     cTop     cBot
    1   0.0 0.00000 0.000000 1000000.0   0   0   0     0     0     0  0.00000 0.868801
    2   0.0 0.00000 0.000000 1000000.0   0   0   0     0     0     0  0.00000 0.868801
    3   0.0 0.00000 0.000000 1000000.0   0   0   0     0     0     0  0.00000 0.868801
    4   0.0 0.00000 0.000000 1000000.0   0   0   0     0     0     0  0.00000 0.868801
    5   0.0 0.00000 0.000000 1000000.0   0   0   0     0     0     0  0.00000 0.868801
    6   0.0 0.00000 0.000000 1000000.0   0   0   0     0     0     0  0.00000 0.868801
    7   0.4 0.00000 0.000000 1000000.0   0   0   0     0     0     0 61.43372 0.868801
    8   0.0 0.00903 0.015516 1000000.0   0   0   0     0     0     0  0.00000 0.868801
    9   0.0 0.00903 0.015516 1000000.0   0   0   0     0     0     0  0.00000 0.868801
   10   0.0 0.00903 0.015516 1000000.0   0   0   0     0     0     0  0.00000 0.868801
   11   0.0 0.00903 0.015516 1000000.0   0   0   0     0     0     0  0.00000 0.868801
   12   0.0 0.00903 0.015516 1000000.0   0   0   0     0     0     0  0.00000 0.868801
   13   0.0 0.00903 0.015516 1000000.0   0   0   0     0     0     0  0.00000 0.868801
   14   0.0 0.00903 0.015516 1000000.0   0   0   0     0     0     0  0.00000 0.868801
   15   0.0 0.00903 0.015516 1000000.0   0   0   0     0     0     0  0.00000 0.868801
   16   0.0 0.00903 0.015516 1000000.0   0   0   0     0     0     0  0.00000 0.868801
   17   0.0 0.00903 0.015516 1000000.0   0   0   0     0     0     0  0.00000 0.868801
   18   0.0 0.00903 0.015516 1000000.0   0   0   0     0     0     0  0.00000 0.868801
   19   0.0 0.00000 0.000000 1000000.0   0   0   0     0     0     0  0.00000 0.868801
   20   0.0 0.00000 0.000000 1000000.0   0   0   0     0     0     0  0.00000 0.868801
   21   0.0 0.00000 0.000000 1000000.0   0   0   0     0     0     0  0.00000 0.868801
   22   0.0 0.00000 0.000000 1000000.0   0   0   0     0     0     0  0.00000 0.868801
   23   0.0 0.00000 0.000000 1000000.0   0   0   0     0     0     0  0.00000 0.868801
   24   0.0 0.00000 0.000000 1000000.0   0   0   0     0     0     0  0.00000 0.868801
end*** END OF INPUT FILE ATMOSPH.IN **********************************
