Pcp_File_Version=4
*** BLOCK I: ATMOSPHERIC INFORMATION  **********************************
MaxAL (MaxAL = number of atmospheric data-records)
24
lDailyVar lSinusVar lLai lBCCycles lInterc 
f f f f f
hCritS (max. allowed pressure head at the soil surface)
1e+30
 tAtm  Prec    rSoil    rRoot    hCritA  rB  hB  ht  tTop  tBot  Ampl      cTop  cBot
    1 0.000 0.000000 0.000000 1000000.0   0   0   0     0     0     0  0.000000   0.0
    2 0.000 0.000000 0.000000 1000000.0   0   0   0     0     0     0  0.000000   0.0
    3 0.000 0.000000 0.000000 1000000.0   0   0   0     0     0     0  0.000000   0.0
    4 0.000 0.000000 0.000000 1000000.0   0   0   0     0     0     0  0.000000   0.0
    5 0.000 0.000000 0.000000 1000000.0   0   0   0     0     0     0  0.000000   0.0
    6 0.000 0.000000 0.000000 1000000.0   0   0   0     0     0     0  0.000000   0.0
    7 1.395 0.000000 0.000000 1000000.0   0   0   0     0     0     0 38.467789   0.0
    8 0.000 0.012625 0.008045 1000000.0   0   0   0     0     0     0  0.000000   0.0
    9 0.000 0.012625 0.008045 1000000.0   0   0   0     0     0     0  0.000000   0.0
   10 0.000 0.012625 0.008045 1000000.0   0   0   0     0     0     0  0.000000   0.0
   11 0.000 0.012625 0.008045 1000000.0   0   0   0     0     0     0  0.000000   0.0
   12 0.000 0.012625 0.008045 1000000.0   0   0   0     0     0     0  0.000000   0.0
   13 0.000 0.012625 0.008045 1000000.0   0   0   0     0     0     0  0.000000   0.0
   14 0.000 0.012625 0.008045 1000000.0   0   0   0     0     0     0  0.000000   0.0
   15 0.000 0.012625 0.008045 1000000.0   0   0   0     0     0     0  0.000000   0.0
   16 0.000 0.012625 0.008045 1000000.0   0   0   0     0     0     0  0.000000   0.0
   17 0.000 0.012625 0.008045 1000000.0   0   0   0     0     0     0  0.000000   0.0
   18 0.000 0.012625 0.008045 1000000.0   0   0   0     0     0     0  0.000000   0.0
   19 0.000 0.000000 0.000000 1000000.0   0   0   0     0     0     0  0.000000   0.0
   20 0.000 0.000000 0.000000 1000000.0   0   0   0     0     0     0  0.000000   0.0
   21 0.000 0.000000 0.000000 1000000.0   0   0   0     0     0     0  0.000000   0.0
   22 0.000 0.000000 0.000000 1000000.0   0   0   0     0     0     0  0.000000   0.0
   23 0.000 0.000000 0.000000 1000000.0   0   0   0     0     0     0  0.000000   0.0
   24 0.000 0.000000 0.000000 1000000.0   0   0   0     0     0     0  0.000000   0.0
end*** END OF INPUT FILE ATMOSPH.IN **********************************
